[TITLE]

[JUNCTIONS]
 2                                    56.4000
 3                                    53.8000
 4                                    54.9000
 5                                    56.0000
 6                                    57.0000
 7                                    53.9000
 8                                    54.5000
 9                                    57.9000
 10                                   62.1000
 11                                   62.8000
 12                                   58.6000
 13                                   59.3000
 14                                   59.9000
 15                                   59.2000
 16                                   53.6000
 17                                   54.8000
 18                                   55.1000
 19                                   54.2000
 20                                   54.5000
 21                                   62.9000
 22                                   61.8000
 1                                    71.0000

[RESERVOIRS]
 R                                    71.0000                                

[TANKS]

[PIPES]
 2                               2                               3                                   124.0000     100.0000     100.0000       0.0000       
 3                               3                               4                                   118.0000     100.0000     100.0000       0.0000       
 4                               4                               5                                    81.0000     100.0000     100.0000       0.0000       
 5                               5                               6                                   134.0000     100.0000     100.0000       0.0000       
 6                               6                               12                                  135.0000     100.0000     100.0000       0.0000       
 7                               12                              15                                  202.0000     100.0000     100.0000       0.0000       
 8                               2                               22                                  135.0000     100.0000     100.0000       0.0000       
 9                               2                               21                                  170.0000     100.0000     100.0000       0.0000       
 10                              21                              22                                  113.0000     100.0000     100.0000       0.0000       
 11                              22                              20                                  335.0000     100.0000     100.0000       0.0000       
 12                              20                              19                                  115.0000     125.0000     100.0000       0.0000       
 13                              19                              2                                   345.0000     100.0000     100.0000       0.0000       
 14                              19                              17                                  114.0000     100.0000     100.0000       0.0000       
 15                              3                               16                                  103.0000     100.0000     100.0000       0.0000       
 16                              16                              17                                  261.0000     100.0000     100.0000       0.0000       
 17                              17                              18                                   72.0000     100.0000     100.0000       0.0000       
 18                              18                              7                                   373.0000     100.0000     100.0000       0.0000       
 19                              7                               3                                    98.0000     100.0000     100.0000       0.0000       
 20                              7                               8                                   110.0000     100.0000     100.0000       0.0000       
 21                              8                               4                                    98.0000     100.0000     100.0000       0.0000       
 22                              8                               9                                   246.0000     100.0000     100.0000       0.0000       
 23                              5                               11                                  174.0000     100.0000     100.0000       0.0000       
 24                              11                              10                                  102.0000     100.0000     100.0000       0.0000       
 25                              10                              6                                    92.0000     100.0000     100.0000       0.0000       
 26                              6                               9                                   100.0000     100.0000     100.0000       0.0000       
 27                              10                              13                                  130.0000     100.0000     100.0000       0.0000       
 28                              13                              12                                   90.0000     100.0000     100.0000       0.0000       
 29                              13                              14                                  185.0000     125.0000     100.0000       0.0000       
 30                              14                              15                                   90.0000     100.0000     100.0000       0.0000       
 1                               1                               2                                   165.0000     125.0000     100.0000       0.0000       

[PUMPS]
 31                              R                               1                                POWER 5.0000

[VALVES]

[DEMANDS]
 2                                   153.000000                                
 3                                    70.500000                                
 4                                    58.500000                                
 5                                    75.000000                                
 6                                    67.500000                                
 7                                    63.000000                                
 8                                    48.000000                                
 9                                    42.000000                                
 10                                   30.000000                                
 11                                   42.000000                                
 12                                   37.500000                                
 13                                   37.500000                                
 14                                   63.000000                                
 15                                  445.400000                                
 16                                  108.000000                                
 17                                   79.500000                                
 18                                   55.500000                                
 19                                  118.500000                                
 20                                  124.500000                                
 21                                   31.500000                                
 22                                   79.500000                                
 1                                     0.000000                                

[EMITTERS]

[STATUS]

[PATTERNS]

[CURVES]

[CONTROLS]

[RULES]

[QUALITY]

[SOURCES]

[MIXING]

[REACTIONS]
 ORDER  BULK            1.00
 ORDER  WALL            1
 ORDER  TANK            1.00
 GLOBAL BULK            0.000000
 GLOBAL WALL            0.000000

[ENERGY]
 GLOBAL EFFIC        75.0000
 DEMAND CHARGE       0.0000

[TIMES]
 DURATION            0:00:00
 HYDRAULIC TIMESTEP  1:00:00
 QUALITY TIMESTEP    0:05:00
 REPORT TIMESTEP     1:00:00
 REPORT START        0:00:00
 PATTERN TIMESTEP    1:00:00
 PATTERN START       0:00:00
 RULE TIMESTEP       0:06:00
 START CLOCKTIME     0:00:00
 STATISTIC           NONE

[OPTIONS]
 UNITS               CMD
 PRESSURE            METERS
 HEADLOSS            H-W
 UNBALANCED          CONTINUE 10
 QUALITY             NONE
 DEMAND MULTIPLIER   1.0000
 EMITTER EXPONENT    0.5000
 VISCOSITY           1.000000
 DIFFUSIVITY         1.000000
 SPECIFIC GRAVITY    1.000000
 TRIALS              40
 ACCURACY            0.00100000
 TOLERANCE           0.01000000
 CHECKFREQ           2
 MAXCHECK            10
 DAMPLIMIT           0.00000000

[REPORT]
 PAGESIZE            0
 STATUS              NO
 SUMMARY             NO
 ENERGY              NO
 MESSAGES            YES
 NODES               NONE
 LINKS               NONE
 Elevation           NO
 Demand              PRECISION 2
 Head                PRECISION 2
 Pressure            PRECISION 2
 Quality             NO
 Length              NO
 Diameter            NO
 Flow                PRECISION 2
 Velocity            PRECISION 2
 Headloss            PRECISION 2
 Quality             NO
 State               NO
 Setting             NO
 Reaction            NO

[COORDINATES]
 2                                  2348.112000    8111.658000
 3                                  2331.691000    6863.711000
 4                                  3809.524000    6781.609000
 5                                  5303.777000    6765.189000
 6                                  6847.291000    6699.507000
 7                                  2249.589000    5517.241000
 8                                  3973.727000    5517.241000
 9                                  6880.131000    5418.719000
 10                                 6912.972000    7931.034000
 11                                 6945.813000    8981.938000
 12                                 8177.340000    6666.667000
 13                                 8226.601000    7947.455000
 14                                 9638.752000    7996.716000
 15                                 9737.274000    6403.941000
 16                                 1428.571000    6190.476000
 17                                  394.089000    6830.870000
 18                                  361.248000    5353.038000
 19                                  410.509000    8177.340000
 20                                  426.929000    9261.084000
 21                                 3809.524000    9310.345000
 22                                 2331.691000    9326.765000
 1                                  3661.741000    8111.658000
 R                                  4482.759000    8686.371000

[VERTICES]

[TAGS]

[LABELS]
;X-Coord             Y-Coord             Label & Anchor Node

[BACKDROP]
  DIMENSIONS  	0.000             	0.000             	10000.000         	10000.000         
 UNITS          	None
 FILE           	
 OFFSET         	0.00            	0.00            

[END]
