[TITLE]

[JUNCTIONS]
 2                                     0.0000
 3                                     0.0000
 4                                     0.0000
 5                                     0.0000
 6                                     0.0000
 7                                     0.0000
 8                                     0.0000
 9                                     0.0000
 10                                    0.0000
 11                                    0.0000
 12                                    0.0000
 13                                    0.0000
 14                                    0.0000
 15                                    0.0000
 16                                    0.0000
 17                                    0.0000
 18                                    0.0000
 19                                    0.0000
 20                                    0.0000
 21                                    0.0000
 22                                    0.0000
 23                                    0.0000
 24                                    0.0000
 25                                    0.0000
 26                                    0.0000
 27                                    0.0000
 28                                    0.0000
 29                                    0.0000
 30                                    0.0000
 31                                    0.0000
 32                                    0.0000

[RESERVOIRS]
 1                                   100.0000                                

[TANKS]

[PIPES]
 1                               1                               2                                   100.0000    1016.0000     130.0000       0.0000       
 2                               2                               3                                  1350.0000    1016.0000     130.0000       0.0000       
 3                               3                               4                                   900.0000    1016.0000     130.0000       0.0000       
 4                               4                               5                                  1150.0000    1016.0000     130.0000       0.0000       
 5                               5                               6                                  1450.0000    1016.0000     130.0000       0.0000       
 6                               6                               7                                   450.0000     762.0000     130.0000       0.0000       
 7                               7                               8                                   850.0000     762.0000     130.0000       0.0000       
 10                              10                              11                                  950.0000     508.0000     130.0000       0.0000       
 11                              11                              12                                 1200.0000     762.0000     130.0000       0.0000       
 12                              12                              13                                 3500.0000     609.6000     130.0000       0.0000       
 13                              10                              14                                  800.0000     406.3000     130.0000       0.0000       
 14                              14                              15                                  500.0000     406.3000     130.0000       0.0000       
 15                              15                              16                                  550.0000     406.3000     130.0000       0.0000       
 16                              16                              17                                 2730.0000    1016.0000     130.0000       0.0000       
 17                              17                              18                                 1750.0000     762.0000     130.0000       0.0000       
 18                              18                              19                                  800.0000    1016.0000     130.0000       0.0000       
 19                              19                              3                                   400.0000     762.0000     130.0000       0.0000       
 20                              3                               20                                 2200.0000     762.0000     130.0000       0.0000       
 21                              20                              21                                 1500.0000     508.0000     130.0000       0.0000       
 22                              21                              22                                  500.0000     406.3000     130.0000       0.0000       
 23                              20                              23                                 2650.0000     609.6000     130.0000       0.0000       
 24                              23                              24                                 1230.0000     406.3000     130.0000       0.0000       
 25                              24                              25                                 1300.0000     406.3000     130.0000       0.0000       
 8                               8                               9                                   850.0000     762.0000     130.0000       0.0000       
 9                               9                               10                                  800.0000     762.0000     130.0000       0.0000       
 27                              26                              27                                  300.0000     508.0000     130.0000       0.0000       
 28                              27                              16                                  750.0000     609.6000     130.0000       0.0000       
 29                              23                              28                                 1500.0000     406.3000     130.0000       0.0000       
 30                              28                              29                                 2000.0000     406.3000     130.0000       0.0000       
 31                              29                              30                                 1600.0000     406.3000     130.0000       0.0000       
 32                              30                              31                                  150.0000     406.3000     130.0000       0.0000       
 33                              31                              32                                  860.0000     508.0000     130.0000       0.0000       
 34                              32                              25                                  950.0000     508.0000     130.0000       0.0000       
 26                              25                              26                                  850.0000     609.6000     130.0000       0.0000       

[PUMPS]

[VALVES]

[DEMANDS]
 2                                   890.000000                                
 3                                   850.000000                                
 4                                   130.000000                                
 5                                   725.000000                                
 6                                  1005.000000                                
 7                                  1350.000000                                
 8                                   550.000000                                
 9                                   525.000000                                
 10                                  525.000000                                
 11                                    0.000000                                
 12                                  560.000000                                
 13                                  940.000000                                
 14                                  615.000000                                
 15                                  280.000000                                
 16                                  310.000000                                
 17                                  865.000000                                
 18                                 1345.000000                                
 19                                   60.000000                                
 20                                 1275.000000                                
 21                                  930.000000                                
 22                                  485.000000                                
 23                                 1045.000000                                
 24                                  820.000000                                
 25                                  170.000000                                
 26                                  900.000000                                
 27                                  370.000000                                
 28                                  290.000000                                
 29                                  360.000000                                
 30                                  360.000000                                
 31                                  105.000000                                
 32                                   85.000000                                

[EMITTERS]

[STATUS]

[PATTERNS]

[CURVES]

[CONTROLS]

[RULES]

[QUALITY]

[SOURCES]

[MIXING]

[REACTIONS]
 ORDER  BULK            1.00
 ORDER  WALL            1
 ORDER  TANK            1.00
 GLOBAL BULK            0.000000
 GLOBAL WALL            0.000000

[ENERGY]
 GLOBAL EFFIC        75.0000
 DEMAND CHARGE       0.0000

[TIMES]
 DURATION            0:00:00
 HYDRAULIC TIMESTEP  1:00:00
 QUALITY TIMESTEP    0:05:00
 REPORT TIMESTEP     1:00:00
 REPORT START        0:00:00
 PATTERN TIMESTEP    1:00:00
 PATTERN START       0:00:00
 RULE TIMESTEP       0:06:00
 START CLOCKTIME     0:00:00
 STATISTIC           NONE

[OPTIONS]
 UNITS               CMH
 PRESSURE            METERS
 HEADLOSS            H-W
 UNBALANCED          CONTINUE 10
 QUALITY             NONE
 DEMAND MULTIPLIER   1.0000
 EMITTER EXPONENT    0.5000
 VISCOSITY           1.000000
 DIFFUSIVITY         1.000000
 SPECIFIC GRAVITY    1.000000
 TRIALS              40
 ACCURACY            0.00100000
 TOLERANCE           0.01000000
 CHECKFREQ           2
 MAXCHECK            10
 DAMPLIMIT           0.00000000

[REPORT]
 PAGESIZE            0
 STATUS              NO
 SUMMARY             NO
 ENERGY              NO
 MESSAGES            YES
 NODES               NONE
 LINKS               NONE
 Elevation           NO
 Demand              PRECISION 2
 Head                PRECISION 2
 Pressure            PRECISION 2
 Quality             NO
 Length              NO
 Diameter            NO
 Flow                PRECISION 2
 Velocity            PRECISION 2
 Headloss            PRECISION 2
 Quality             NO
 State               NO
 Setting             NO
 Reaction            NO

[COORDINATES]
 2                                  5008.000000    4269.294000
 3                                  5008.000000    5120.000000
 4                                  6059.113000    5120.000000
 5                                  7060.755000    5120.000000
 6                                  8390.000000    5120.000000
 7                                  8390.000000    5993.432000
 8                                  8390.000000    6945.813000
 9                                  8390.000000    7880.000000
 10                                 7257.800000    7880.000000
 11                                 7274.220000    8472.906000
 12                                 7356.322000    9047.619000
 13                                 6732.348000    9096.880000
 14                                 6518.883000    7880.000000
 15                                 5533.662000    7880.000000
 16                                 5008.210000    7880.000000
 17                                 5008.000000    7126.437000
 18                                 5008.000000    6535.304000
 19                                 5008.210000    5747.126000
 20                                 4137.931000    5120.000000
 21                                 4121.511000    4187.192000
 22                                 4187.192000    3267.652000
 23                                 2922.000000    5120.000000
 24                                 2922.824000    6568.144000
 25                                 2922.824000    7880.000000
 26                                 3596.059000    7881.773000
 27                                 4548.440000    7880.000000
 28                                 1822.660000    5120.000000
 29                                  433.000000    5120.000000
 30                                  433.000000    6305.419000
 31                                  443.350000    7880.000000
 32                                 1576.355000    7880.000000
 1                                  6223.317000    3596.059000

[VERTICES]

[TAGS]

[LABELS]
;X-Coord             Y-Coord             Label & Anchor Node

[BACKDROP]
  DIMENSIONS  	0.000             	0.000             	10000.000         	10000.000         
 UNITS          	None
 FILE           	
 OFFSET         	0.00            	0.00            

[END]
